Circuit: *** SPICE deck for cell 4bitFA{lay} from library 16BitAdder

Ignoring BSIM parameter XL
Ignoring BSIM parameter XW
Ignoring BSIM parameter XL
Ignoring BSIM parameter XW
WARNING: Node CIN is floating.

Direct Newton iteration for .op point succeeded.

Date: Thu May 16 10:57:13 2019
Total elapsed time: 0.668 seconds.

tnom = 27
temp = 27
method = modified trap
totiter = 2122
traniter = 2082
tranpoints = 1042
accept = 1042
rejected = 0
matrix size = 119
fillins = 60
solver = Normal
Thread vector: 192.5/81.7[8] 91.6/11.4[8] 20.0/5.8[8] 1.1/3.2[1]  2592/500
Matrix Compiler1: 18.26 KB object code size  10.3/6.7/[3.4]
Matrix Compiler2: 16.14 KB object code size  4.8/7.8/[1.1]

