Circuit: *** SPICE deck for cell 8BitFA{lay} from library 16BitAdder

Ignoring BSIM parameter XL
Ignoring BSIM parameter XW
Ignoring BSIM parameter XL
Ignoring BSIM parameter XW
WARNING: Node CIN is floating.

Direct Newton iteration for .op point succeeded.

Date: Sun Jan 13 22:15:57 2019
Total elapsed time: 0.976 seconds.

tnom = 27
temp = 27
method = modified trap
totiter = 2130
traniter = 2083
tranpoints = 1042
accept = 1042
rejected = 0
matrix size = 235
fillins = 128
solver = Normal
Thread vector: 405.7/141.4[8] 190.5/32.9[8] 34.7/14.3[8] 2.4/6.0[1]  2592/500
Matrix Compiler1: 37.36 KB object code size  27.4/16.9/[5.1]
Matrix Compiler2: 32.12 KB object code size  11.6/15.1/[4.4]

