Circuit: *** SPICE deck for cell Or2Gate{lay} from library 16BitAdder

Ignoring BSIM parameter XL
Ignoring BSIM parameter XW
Ignoring BSIM parameter XL
Ignoring BSIM parameter XW
Direct Newton iteration for .op point succeeded.

Date: Sun Jan 13 20:57:56 2019
Total elapsed time: 0.171 seconds.

tnom = 27
temp = 27
method = modified trap
totiter = 2717
traniter = 2708
tranpoints = 1267
accept = 1238
rejected = 29
matrix size = 9
fillins = 0
solver = Normal
Matrix Compiler1: 350 bytes object code size  0.2/0.0/[0.0]
Matrix Compiler2: 793 bytes object code size  0.1/0.2/[0.1]

