Circuit: *** SPICE deck for cell 1BitFA{sch} from library 16BitAdder

Ignoring BSIM parameter XL
Ignoring BSIM parameter XW
Ignoring BSIM parameter XL
Ignoring BSIM parameter XW
Warning: Pd = 0 is less than W.
Warning: Ps = 0 is less than W.
Warning: Pd = 0 is less than W.
Warning: Ps = 0 is less than W.
Warning: Pd = 0 is less than W.
Warning: Ps = 0 is less than W.
Direct Newton iteration for .op point succeeded.

Date: Sun Jan 13 21:35:25 2019
Total elapsed time: 0.380 seconds.

tnom = 27
temp = 27
method = modified trap
totiter = 5542
traniter = 5516
tranpoints = 1794
accept = 1663
rejected = 131
matrix size = 33
fillins = 6
solver = Normal
Thread vector: 53.1/20.6[5] 18.3/6.1[5] 4.1/3.0[5] 0.4/2.1[1]  2592/500
Matrix Compiler1: 3.68 KB object code size  1.7/1.1/[0.5]
Matrix Compiler2: 4.07 KB object code size  0.9/1.5/[0.4]

