Circuit: *** SPICE deck for cell 1BitFA{lay} from library 16BitAdder

Ignoring BSIM parameter XL
Ignoring BSIM parameter XW
Ignoring BSIM parameter XL
Ignoring BSIM parameter XW
Direct Newton iteration for .op point succeeded.

Date: Sun Jan 13 21:37:11 2019
Total elapsed time: 0.341 seconds.

tnom = 27
temp = 27
method = modified trap
totiter = 4582
traniter = 4560
tranpoints = 1814
accept = 1667
rejected = 147
matrix size = 33
fillins = 6
solver = Normal
Thread vector: 56.1/25.9[5] 22.4/5.0[5] 4.4/3.4[5] 0.3/1.2[1]  2592/500
Matrix Compiler1: 3.72 KB object code size  2.3/0.8/[0.3]
Matrix Compiler2: 4.05 KB object code size  0.8/0.8/[0.4]

