Circuit: *** SPICE deck for cell XorGate{sch} from library 16BitAdder

Ignoring BSIM parameter XL
Ignoring BSIM parameter XW
Ignoring BSIM parameter XL
Ignoring BSIM parameter XW
Warning: Pd = 0 is less than W.
Warning: Ps = 0 is less than W.
Warning: Pd = 0 is less than W.
Warning: Ps = 0 is less than W.
Direct Newton iteration for .op point succeeded.

Date: Sun Jan 13 21:04:17 2019
Total elapsed time: 0.214 seconds.

tnom = 27
temp = 27
method = modified trap
totiter = 3474
traniter = 3461
tranpoints = 1382
accept = 1328
rejected = 54
matrix size = 14
fillins = 2
solver = Normal
Matrix Compiler1: 1.25 KB object code size  0.4/0.2/[0.1]
Matrix Compiler2: 1.47 KB object code size  0.2/0.3/[0.1]

