Circuit: *** SPICE deck for cell CLAblock{sch} from library 16BitAdder

Ignoring BSIM parameter XL
Ignoring BSIM parameter XW
Ignoring BSIM parameter XL
Ignoring BSIM parameter XW
WARNING: Node AND2GATE@1_INP1 is floating.
WARNING: Node CLOUT is floating.

WARNING: Less than two connections to node CLOUT.  This node is used by CLOAD.
Warning: Pd = 0 is less than W.
Warning: Ps = 0 is less than W.
Warning: Pd = 0 is less than W.
Warning: Ps = 0 is less than W.
Warning: Pd = 0 is less than W.
Warning: Ps = 0 is less than W.
Direct Newton iteration for .op point succeeded.

Date: Sat May 18 21:42:15 2019
Total elapsed time: 0.617 seconds.

tnom = 27
temp = 27
method = modified trap
totiter = 4592
traniter = 4565
tranpoints = 1656
accept = 1565
rejected = 91
matrix size = 29
fillins = 2
solver = Normal
Thread vector: 57.8/18.6[3] 7.0/3.2[3] 3.2/1.4[3] 1.3/1.2[2]  2592/500
Matrix Compiler1: 1.75 KB object code size  0.8/1.1/[0.3]
Matrix Compiler2: off  [0.3]/1.0/1.5

