Circuit: *** SPICE deck for cell 1BitAdder{lay} from library 16BitAdder

Ignoring BSIM parameter XL
Ignoring BSIM parameter XW
Ignoring BSIM parameter XL
Ignoring BSIM parameter XW
WARNING: Node CIN is floating.
WARNING: Node OUT is floating.

WARNING: Less than two connections to node OUT.  This node is used by CLOAD.
Direct Newton iteration for .op point succeeded.

Date: Sun Jan 13 22:29:23 2019
Total elapsed time: 0.283 seconds.

tnom = 27
temp = 27
method = modified trap
totiter = 3303
traniter = 3281
tranpoints = 1431
accept = 1360
rejected = 71
matrix size = 30
fillins = 8
solver = Normal
Thread vector: 46.4/27.2[4] 18.5/6.1[4] 3.4/2.1[4] 0.2/1.3[1]  2592/500
Matrix Compiler1: 3.54 KB object code size  2.0/1.0/[0.4]
Matrix Compiler2: 3.59 KB object code size  0.9/1.3/[0.4]

