Circuit: *** SPICE deck for cell 8BitCLAadder{sch} from library 16BitAdder

Ignoring BSIM parameter XL
Ignoring BSIM parameter XW
Ignoring BSIM parameter XL
Ignoring BSIM parameter XW
WARNING: Node CIN is floating.
WARNING: Node CLABLOCK@0:AND2GATE@1_INP1 is floating.
WARNING: Node CLABLOCK@1:AND2GATE@1_INP1 is floating.
WARNING: Node CLABLOCK@2:AND2GATE@1_INP1 is floating.
WARNING: Node CLABLOCK@3:AND2GATE@1_INP1 is floating.
WARNING: Node CLABLOCK@4:AND2GATE@1_INP1 is floating.
WARNING: Node CLABLOCK@5:AND2GATE@1_INP1 is floating.
WARNING: Node CLABLOCK@6:AND2GATE@1_INP1 is floating.

Warning: Pd = 0 is less than W.
Warning: Ps = 0 is less than W.
Warning: Pd = 0 is less than W.
Warning: Ps = 0 is less than W.
Warning: Pd = 0 is less than W.
Warning: Ps = 0 is less than W.
Direct Newton iteration for .op point succeeded.

Date: Sun Jan 13 23:05:47 2019
Total elapsed time: 1.389 seconds.

tnom = 27
temp = 27
method = modified trap
totiter = 2117
traniter = 2082
tranpoints = 1042
accept = 1042
rejected = 0
matrix size = 323
fillins = 402
solver = Normal
Thread vector: 596.6/235.1[8] 286.7/48.5[8] 48.2/22.4[8] 4.0/5.7[1]  2592/500
Matrix Compiler1: 61.38 KB object code size  47.6/24.3/[8.6]
Matrix Compiler2: 47.20 KB object code size  17.4/24.2/[5.4]

