Circuit: *** SPICE deck for cell And2Gate{lay} from library 16BitAdder

Ignoring BSIM parameter XL
Ignoring BSIM parameter XW
Ignoring BSIM parameter XL
Ignoring BSIM parameter XW
Direct Newton iteration for .op point succeeded.

Date: Sun Jan 13 20:31:42 2019
Total elapsed time: 0.185 seconds.

tnom = 27
temp = 27
method = modified trap
totiter = 3725
traniter = 3718
tranpoints = 1622
accept = 1539
rejected = 83
matrix size = 9
fillins = 0
solver = Normal
Matrix Compiler1: 368 bytes object code size  0.1/0.0/[0.0]
Matrix Compiler2: 743 bytes object code size  0.1/0.2/[0.0]

