Circuit: *** SPICE deck for cell And2Gate{lay} from library 16BitAdder

Ignoring BSIM parameter XL
Ignoring BSIM parameter XW
Ignoring BSIM parameter XL
Ignoring BSIM parameter XW
Direct Newton iteration for .op point succeeded.

Date: Sun Jan 13 20:33:25 2019
Total elapsed time: 0.203 seconds.

tnom = 27
temp = 27
method = modified trap
totiter = 2871
traniter = 2864
tranpoints = 1307
accept = 1267
rejected = 40
matrix size = 9
fillins = 0
solver = Normal
Matrix Compiler1: 368 bytes object code size  0.2/0.0/[0.0]
Matrix Compiler2: off  [0.0]/0.2/0.0

