Circuit: *** SPICE deck for cell 16BitMixedAdder{lay} from library 16BitAdder

Ignoring BSIM parameter XL
Ignoring BSIM parameter XW
Ignoring BSIM parameter XL
Ignoring BSIM parameter XW
WARNING: Node _8BITCLAA@0:NET@5 is floating.
WARNING: Node _8BITCLAA@0:NET@7 is floating.
WARNING: Node _8BITCLAA@0:NET@50 is floating.
WARNING: Node _8BITCLAA@0:NET@11 is floating.
WARNING: Node _8BITCLAA@0:NET@527 is floating.
WARNING: Node _8BITCLAA@0:NET@184 is floating.
WARNING: Node _8BITCLAA@0:NET@225 is floating.
WARNING: Node _8BITCLAA@0:CLABLOCK@0:OR2GATE@2_INP0 is floating.
WARNING: Node _8BITCLAA@0:NET@66 is floating.
WARNING: Node _8BITCLAA@0:NET@9 is floating.
WARNING: Node _8BITCLAA@0:CLABLOCK@1:OR2GATE@2_INP0 is floating.
WARNING: Node _8BITCLAA@0:NET@134 is floating.
WARNING: Node _8BITCLAA@0:NET@12 is floating.
WARNING: Node _8BITCLAA@0:CLABLOCK@2:OR2GATE@2_INP0 is floating.
WARNING: Node _8BITCLAA@0:CLABLOCK@3:OR2GATE@2_INP0 is floating.
WARNING: Node _8BITCLAA@0:CLABLOCK@4:OR2GATE@2_INP0 is floating.
WARNING: Node _8BITCLAA@0:NET@227 is floating.
WARNING: Node _8BITCLAA@0:NET@131 is floating.
WARNING: Node _8BITCLAA@0:CLABLOCK@5:OR2GATE@2_INP0 is floating.
WARNING: Node _8BITCLAA@0:CLABLOCK@6:OR2GATE@2_INP0 is floating.
WARNING: Node CIN is floating.

Direct Newton iteration for .op point succeeded.

Date: Thu May 16 10:56:54 2019
Total elapsed time: 3.003 seconds.

tnom = 27
temp = 27
method = modified trap
totiter = 2138
traniter = 2088
tranpoints = 1042
accept = 1042
rejected = 0
matrix size = 568
fillins = 320
solver = Normal
Thread vector: 2146.3/557.2[8] 529.5/128.3[8] 114.3/48.3[8] 6.5/17.9[1]  2592/500
Matrix Compiler1: 85.62 KB object code size  150.2/63.8/[17.1]
Matrix Compiler2: 76.50 KB object code size  44.0/39.2/[9.2]

