Circuit: *** SPICE deck for cell Nand3Gate{sch} from library 16BitAdder

Ignoring BSIM parameter XL
Ignoring BSIM parameter XW
Ignoring BSIM parameter XL
Ignoring BSIM parameter XW
Warning: Pd = 0 is less than W.
Warning: Ps = 0 is less than W.
Warning: Pd = 0 is less than W.
Warning: Ps = 0 is less than W.
Direct Newton iteration for .op point succeeded.

Date: Sun Jan 13 19:56:27 2019
Total elapsed time: 0.173 seconds.

tnom = 27
temp = 27
method = modified trap
totiter = 3844
traniter = 3836
tranpoints = 1583
accept = 1508
rejected = 75
matrix size = 11
fillins = 0
solver = Normal
Matrix Compiler1: 504 bytes object code size  0.2/0.1/[0.0]
Matrix Compiler2: 925 bytes object code size  0.1/0.2/[0.1]

